tests/fuzzer/corpus_json/05_radial_chain_10nodes.json
{
  "version": "1.0",
  "type": "input",
  "is_batch": false,
  "attributes": {},
  "data": {
    "node": [
      {
        "id": 0,
        "u_rated": 10000.0
      },
      {
        "id": 1,
        "u_rated": 10000.0
      },
      {
        "id": 2,
        "u_rated": 10000.0
      },
      {
        "id": 3,
        "u_rated": 10000.0
      },
      {
        "id": 4,
        "u_rated": 10000.0
      },
      {
        "id": 5,
        "u_rated": 10000.0
      },
      {
        "id": 6,
        "u_rated": 10000.0
      },
      {
        "id": 7,
        "u_rated": 10000.0
      },
      {
        "id": 8,
        "u_rated": 10000.0
      },
      {
        "id": 9,
        "u_rated": 10000.0
      }
    ],
    "source": [
      {
        "id": 10,
        "node": 0,
        "status": 1,
        "u_ref": 1.0,
        "u_ref_angle": 0.0,
        "sk": 10000000.0,
        "rx_ratio": 0.1,
        "z01_ratio": 1.0
      }
    ],
    "line": [
      {
        "id": 11,
        "from_node": 0,
        "to_node": 1,
        "from_status": 1,
        "to_status": 1,
        "r1": 0.1,
        "x1": 0.1,
        "c1": 1e-09,
        "tan1": 0.0,
        "r0": 0.3,
        "x0": 0.3,
        "c0": 1e-09,
        "tan0": 0.0,
        "i_n": 400.0
      },
      {
        "id": 12,
        "from_node": 1,
        "to_node": 2,
        "from_status": 1,
        "to_status": 1,
        "r1": 0.1,
        "x1": 0.1,
        "c1": 1e-09,
        "tan1": 0.0,
        "r0": 0.3,
        "x0": 0.3,
        "c0": 1e-09,
        "tan0": 0.0,
        "i_n": 400.0
      },
      {
        "id": 13,
        "from_node": 2,
        "to_node": 3,
        "from_status": 1,
        "to_status": 1,
        "r1": 0.1,
        "x1": 0.1,
        "c1": 1e-09,
        "tan1": 0.0,
        "r0": 0.3,
        "x0": 0.3,
        "c0": 1e-09,
        "tan0": 0.0,
        "i_n": 400.0
      },
      {
        "id": 14,
        "from_node": 3,
        "to_node": 4,
        "from_status": 1,
        "to_status": 1,
        "r1": 0.1,
        "x1": 0.1,
        "c1": 1e-09,
        "tan1": 0.0,
        "r0": 0.3,
        "x0": 0.3,
        "c0": 1e-09,
        "tan0": 0.0,
        "i_n": 400.0
      },
      {
        "id": 15,
        "from_node": 4,
        "to_node": 5,
        "from_status": 1,
        "to_status": 1,
        "r1": 0.1,
        "x1": 0.1,
        "c1": 1e-09,
        "tan1": 0.0,
        "r0": 0.3,
        "x0": 0.3,
        "c0": 1e-09,
        "tan0": 0.0,
        "i_n": 400.0
      },
      {
        "id": 16,
        "from_node": 5,
        "to_node": 6,
        "from_status": 1,
        "to_status": 1,
        "r1": 0.1,
        "x1": 0.1,
        "c1": 1e-09,
        "tan1": 0.0,
        "r0": 0.3,
        "x0": 0.3,
        "c0": 1e-09,
        "tan0": 0.0,
        "i_n": 400.0
      },
      {
        "id": 17,
        "from_node": 6,
        "to_node": 7,
        "from_status": 1,
        "to_status": 1,
        "r1": 0.1,
        "x1": 0.1,
        "c1": 1e-09,
        "tan1": 0.0,
        "r0": 0.3,
        "x0": 0.3,
        "c0": 1e-09,
        "tan0": 0.0,
        "i_n": 400.0
      },
      {
        "id": 18,
        "from_node": 7,
        "to_node": 8,
        "from_status": 1,
        "to_status": 1,
        "r1": 0.1,
        "x1": 0.1,
        "c1": 1e-09,
        "tan1": 0.0,
        "r0": 0.3,
        "x0": 0.3,
        "c0": 1e-09,
        "tan0": 0.0,
        "i_n": 400.0
      },
      {
        "id": 19,
        "from_node": 8,
        "to_node": 9,
        "from_status": 1,
        "to_status": 1,
        "r1": 0.1,
        "x1": 0.1,
        "c1": 1e-09,
        "tan1": 0.0,
        "r0": 0.3,
        "x0": 0.3,
        "c0": 1e-09,
        "tan0": 0.0,
        "i_n": 400.0
      }
    ],
    "sym_load": [
      {
        "id": 20,
        "node": 1,
        "status": 1,
        "type": 0,
        "p_specified": 1000.0,
        "q_specified": 500.0
      },
      {
        "id": 21,
        "node": 2,
        "status": 1,
        "type": 0,
        "p_specified": 1000.0,
        "q_specified": 500.0
      },
      {
        "id": 22,
        "node": 3,
        "status": 1,
        "type": 0,
        "p_specified": 1000.0,
        "q_specified": 500.0
      },
      {
        "id": 23,
        "node": 4,
        "status": 1,
        "type": 0,
        "p_specified": 1000.0,
        "q_specified": 500.0
      },
      {
        "id": 24,
        "node": 5,
        "status": 1,
        "type": 0,
        "p_specified": 1000.0,
        "q_specified": 500.0
      },
      {
        "id": 25,
        "node": 6,
        "status": 1,
        "type": 0,
        "p_specified": 1000.0,
        "q_specified": 500.0
      },
      {
        "id": 26,
        "node": 7,
        "status": 1,
        "type": 0,
        "p_specified": 1000.0,
        "q_specified": 500.0
      },
      {
        "id": 27,
        "node": 8,
        "status": 1,
        "type": 0,
        "p_specified": 1000.0,
        "q_specified": 500.0
      },
      {
        "id": 28,
        "node": 9,
        "status": 1,
        "type": 0,
        "p_specified": 1000.0,
        "q_specified": 500.0
      }
    ]
  }
}